Localizador/JMLT310/CargasMT_SA07_2023124950_JMLT310_--MBS-1P-T--.dss
New "Load.MT_223254017_1_M1" bus1="NODE#190549115.1.2.3" phases=3 conn=Delta model=2 kv=13.800000000 kw = 21.3210085 pf=0.92 status=variable vmaxpu=1.5 vminpu=0.93 daily="MT2_1_SA"  
New "Load.MT_223254017_1_M2" bus1="NODE#190549115.1.2.3" phases=3 conn=Delta model=3 kv=13.800000000 kw = 21.3210085 pf=0.92 status=variable vmaxpu=1.5 vminpu=0.93 daily="MT2_1_SA" 
New "Load.MT_222664577_M1" bus1="NODE#119540197.1.2.3" phases=3 conn=Delta model=2 kv=13.800000000 kw = 1.08764 pf=0.92 status=variable vmaxpu=1.5 vminpu=0.93 daily="MT1_1_SA"  
New "Load.MT_222664577_M2" bus1="NODE#119540197.1.2.3" phases=3 conn=Delta model=3 kv=13.800000000 kw = 1.08764 pf=0.92 status=variable vmaxpu=1.5 vminpu=0.93 daily="MT1_1_SA" 

New "Load.MT_223180235_M1" bus1="NODE#125828784.1.2.3" phases=3 conn=Delta model=2 kv=13.800000000 kw = 10.4685385 pf=0.92 status=variable vmaxpu=1.5 vminpu=0.93 daily="MT1_1_SA"  
New "Load.MT_223180235_M2" bus1="NODE#125828784.1.2.3" phases=3 conn=Delta model=3 kv=13.800000000 kw = 10.4685385 pf=0.92 status=variable vmaxpu=1.5 vminpu=0.93 daily="MT1_1_SA" 
New "Load.MT_223861333_M1" bus1="NODE#127325960.1.2.3" phases=3 conn=Delta model=2 kv=13.800000000 kw = 4.6768535 pf=0.92 status=variable vmaxpu=1.5 vminpu=0.93 daily="MT1_1_SA"  
New "Load.MT_223861333_M2" bus1="NODE#127325960.1.2.3" phases=3 conn=Delta model=3 kv=13.800000000 kw = 4.6768535 pf=0.92 status=variable vmaxpu=1.5 vminpu=0.93 daily="MT1_1_SA" 
New "Load.MT_224290395_M1" bus1="NODE#444956008.1.2.3" phases=3 conn=Delta model=2 kv=13.800000000 kw = 10.4685385 pf=0.92 status=variable vmaxpu=1.5 vminpu=0.93 daily="MT1_1_SA"  
New "Load.MT_224290395_M2" bus1="NODE#444956008.1.2.3" phases=3 conn=Delta model=3 kv=13.800000000 kw = 10.4685385 pf=0.92 status=variable vmaxpu=1.5 vminpu=0.93 daily="MT1_1_SA" 
New "Load.MT_221019211_M1" bus1="NODE#190549085.1.2.3" phases=3 conn=Delta model=2 kv=13.800000000 kw = 45.166409 pf=0.92 status=variable vmaxpu=1.5 vminpu=0.93 daily="MT3_1_SA"  
New "Load.MT_221019211_M2" bus1="NODE#190549085.1.2.3" phases=3 conn=Delta model=3 kv=13.800000000 kw = 45.166409 pf=0.92 status=variable vmaxpu=1.5 vminpu=0.93 daily="MT3_1_SA" 
New "Load.MT_223861551_M1" bus1="NODE#127690257.1.2.3" phases=3 conn=Delta model=2 kv=13.800000000 kw = 2.3702775 pf=0.92 status=variable vmaxpu=1.5 vminpu=0.93 daily="MT1_1_SA"  
New "Load.MT_223861551_M2" bus1="NODE#127690257.1.2.3" phases=3 conn=Delta model=3 kv=13.800000000 kw = 2.3702775 pf=0.92 status=variable vmaxpu=1.5 vminpu=0.93 daily="MT1_1_SA" 
New "Load.MT_219295423_M1" bus1="NODE#127688187.1.2.3" phases=3 conn=Delta model=2 kv=13.800000000 kw = 3.208539 pf=0.92 status=variable vmaxpu=1.5 vminpu=0.93 daily="MT1_1_SA"  
New "Load.MT_219295423_M2" bus1="NODE#127688187.1.2.3" phases=3 conn=Delta model=3 kv=13.800000000 kw = 3.208539 pf=0.92 status=variable vmaxpu=1.5 vminpu=0.93 daily="MT1_1_SA" 
